
**** 05/23/24 16:44:51 ******* PSpice Lite (March 2016) ******* ID# 10813 ****

 ** Profile: "SCHEMATIC1-bias"  [ C:\Users\jfcmp\Documentos\Git\EE610 Projeto Final\parte01\ee610_projeto_final-pspicefiles\schematic


 ****     CIRCUIT DESCRIPTION


******************************************************************************




** Creating circuit file "bias.cir" 
** WARNING: THIS AUTOMATICALLY GENERATED FILE MAY BE OVERWRITTEN BY SUBSEQUENT SIMULATIONS

*Libraries: 
* Profile Libraries :
* Local Libraries :
.LIB "../../../ee610_projeto_final-pspicefiles/ee610_projeto_final.lib" 
* From [PSPICE NETLIST] section of C:\Users\jfcmp\AppData\Roaming\SPB_Data\cdssetup\OrCAD_PSpice\17.2.0\PSpice.ini file:
.lib "nomd.lib" 

*Analysis directives: 
.DC LIN V_VI 0 3 0.01 
.OPTIONS ADVCONV
.PROBE64 V(alias(*)) I(alias(*)) W(alias(*)) D(alias(*)) NOISE(alias(*)) 
.INC "..\SCHEMATIC1.net" 



**** INCLUDING SCHEMATIC1.net ****
* source EE610_PROJETO_FINAL
M_M1         N14371 N14375 0 0 MNINV1           
M_M2         N14371 N14375 N14436 N14436 MPINV1           
V_V1         N14436 0 3V
V_VI         N14375 0 0Vdc
C_C1         N14371 0  155f  TC=0,0 

**** RESUMING bias.cir ****
.END

**** 05/23/24 16:44:51 ******* PSpice Lite (March 2016) ******* ID# 10813 ****

 ** Profile: "SCHEMATIC1-bias"  [ C:\Users\jfcmp\Documentos\Git\EE610 Projeto Final\parte01\ee610_projeto_final-pspicefiles\schematic


 ****     MOSFET MODEL PARAMETERS


******************************************************************************




               MNINV1          MPINV1          
               NMOS            PMOS            
       LEVEL    1               1            
           L  100.000000E-06  100.000000E-06 
           W  100.000000E-06  100.000000E-06 
         VTO    0               0            
          KP   20.000000E-06   20.000000E-06 
       GAMMA    0               0            
         PHI     .6              .6          
      LAMBDA    0               0            
          IS   10.000000E-15   10.000000E-15 
          JS    0               0            
          PB     .8              .8          
        PBSW     .8              .8          
          CJ    0               0            
        CJSW    0               0            
        CGSO    0               0            
        CGDO    0               0            
        CGBO    0               0            
         TOX    0               0            
          XJ    0               0            
       UCRIT   10.000000E+03   10.000000E+03 
      DIOMOD    1               1            
         VFB    0               0            
        LETA    0               0            
        WETA    0               0            
          U0    0               0            
        TEMP    0               0            
         VDD    5               5            
       XPART    0               0            



          JOB CONCLUDED

**** 05/23/24 16:44:51 ******* PSpice Lite (March 2016) ******* ID# 10813 ****

 ** Profile: "SCHEMATIC1-bias"  [ C:\Users\jfcmp\Documentos\Git\EE610 Projeto Final\parte01\ee610_projeto_final-pspicefiles\schematic


 ****     JOB STATISTICS SUMMARY


******************************************************************************



  Total job time (using Solver 1)   =         .03
