
**** 06/04/24 17:13:12 ******* PSpice Lite (March 2016) ******* ID# 10813 ****

 ** Profile: "SCHEMATIC1-bias"  [ C:\Users\jfcmp\Documentos\Git\EE610 Projeto Final\parte04\flipflop-pspicefiles\schematic1\bias.sim 


 ****     CIRCUIT DESCRIPTION


******************************************************************************




** Creating circuit file "bias.cir" 
** WARNING: THIS AUTOMATICALLY GENERATED FILE MAY BE OVERWRITTEN BY SUBSEQUENT SIMULATIONS

*Libraries: 
* Profile Libraries :
* Local Libraries :
.LIB "../../../flipflop-pspicefiles/flipflop.lib" 
* From [PSPICE NETLIST] section of C:\Users\jfcmp\AppData\Roaming\SPB_Data\cdssetup\OrCAD_PSpice\17.2.0\PSpice.ini file:
.lib "nomd.lib" 

*Analysis directives: 
.TRAN  0 50ns 0 5p 
.OPTIONS ADVCONV
.PROBE64 V(alias(*)) I(alias(*)) W(alias(*)) D(alias(*)) NOISE(alias(*)) 
.INC "..\SCHEMATIC1.net" 



**** INCLUDING SCHEMATIC1.net ****
* source FLIPFLOP
M_M1         N14999 N14408 0 0 NMOSInv           
M_M2         N14999 N14408 N14872 N14872 PMOSInv           
C_C1         0 N14999  155 f  TC=0,0 
---------------------------$
ERROR(ORPSIM-16015): Unknown parameter.
V_V1         N14872 0 3
M_M3         N14999 N14872 N14995 N14995 NMOSclock           
M_M4         N14995 N15201 0 0 NMOSclock           
V_V3         N15201 0  
+PULSE 0 3 0 0 0 10n 20n
M_M6         N14408 N14999 0 0 NMOSInv           
M_M7         N14408 N14872 N15522 N15522 NMOSclock           
V_V4         N15552 0  
+PULSE 0 3 10n 0 0 10n 20n
M_M8         N15522 N15552 0 0 NMOSclock           
C_C2         0 N14408  155 f  TC=0,0 
---------------------------$
ERROR(ORPSIM-16015): Unknown parameter.
M_M5         N14408 N14999 N14872 N14872 PMOSInv           

**** RESUMING bias.cir ****
.END
