
**** 06/11/24 17:50:06 ******* PSpice Lite (March 2016) ******* ID# 10813 ****

 ** Profile: "SCHEMATIC1-inversor"  [ C:\Users\jfcmp\Documentos\Git\EE610 Projeto Final\parte01\ee610_projeto_final-PSpiceFiles\SCHEM


 ****     CIRCUIT DESCRIPTION


******************************************************************************




** Creating circuit file "inversor.cir" 
** WARNING: THIS AUTOMATICALLY GENERATED FILE MAY BE OVERWRITTEN BY SUBSEQUENT SIMULATIONS

*Libraries: 
* Profile Libraries :
* Local Libraries :
.LIB "../../../ee610_projeto_final-pspicefiles/ee610_projeto_final.lib" 
.LIB "../../../ee610_projeto_final-pspicefiles/pinv.lib" 
.LIB "../../../ee610_projeto_final-pspicefiles/ninv.lib" 
* From [PSPICE NETLIST] section of C:\Users\jfcmp\AppData\Roaming\SPB_Data\cdssetup\OrCAD_PSpice\17.2.0\PSpice.ini file:
.lib "nomd.lib" 

*Analysis directives: 
.DC LIN V_VI 0 3 0.001 
.OPTIONS ADVCONV
.PROBE64 V(alias(*)) I(alias(*)) W(alias(*)) D(alias(*)) NOISE(alias(*)) 
.INC "..\SCHEMATIC1.net" 



**** INCLUDING SCHEMATIC1.net ****
* source EE610_PROJETO_FINAL
V_V1         N14436 0 3V
V_VI         N14375 0 0Vdc
C_C1         N14371 0  155f  TC=0,0 
M_M1         N14371 N14375 0 0 Mbreakn           
M_M2         N14371 N14375 N14436 N14436 MbreakP           
V_V2         M_UN0001 M_UN0002  
+PULSE 0 3 0 0 0 400p 800p

**** RESUMING inversor.cir ****
.END

ERROR(ORPSIM-15141): Less than 2 connections at node M_UN0001.

ERROR(ORPSIM-15141): Less than 2 connections at node M_UN0002.

ERROR(ORPSIM-15142): Node M_UN0001 is floating

ERROR(ORPSIM-15142): Node M_UN0002 is floating
